DI 90 103 10.4
SX 30 150 10.2
ES 50 106 10.6
GW 10 101 10.5
WD 80 104 10.7
FS 70 122 10.3
CA 40 100 10.1
XZ 20 165 10.8
VV 60 118 15.1
LL 91 110 1.1

